/*--------------------------------*- C++ -*----------------------------------*\
| =========                 |                                                 |
| \\      /  F ield         | OpenFOAM: The Open Source CFD Toolbox           |
|  \\    /   O peration     | Version:  2.3.0                                 |
|   \\  /    A nd           | Web:      www.OpenFOAM.org                      |
|    \\/     M anipulation  |                                                 |
\*---------------------------------------------------------------------------*/
FoamFile
{
    version     2.0;
    format      ascii;
    class       dictionary;
    object      extrudeMeshDict;
}
// * * * * * * * * * * * * * * * * * * * * * * * * * * * * * * * * * * * * * //

// What to extrude:
//      patch   : from patch of another case ('sourceCase')
//      mesh    : as above but with original case included
//      surface : from externally read surface

//constructFrom mesh;
constructFrom patch;
//constructFrom surface;

// If construct from patch/mesh:
sourceCase ".";

sourcePatches (front);
exposedPatchName back;

   //sourcePatches (front_extrusion);
// If construct from patch: patch to use for back (can be same as sourcePatch)
   //exposedPatchName wedge_extrusion;

// Flip surface normals before usage. Valid only for extrude from surface or
// patch.
flipNormals no;

//- Wedge extrusion. If nLayers is 1 assumes symmetry around plane.

 extrudeModel        wedge;

wedgeCoeffs
{
    axisPt       (0 0 0);
    axis         (0 0 1);
    angle        -1;
}

// Do front and back need to be merged? Usually only makes sense for 360
// degree wedges.
mergeFaces false;   //true;

// Merge small edges. Fraction of bounding box.
mergeTol 1e-6;


// * * * * * * * * * * * * * * * * * * * * * * * * * * * * * * * * * * * * * //
