/*--------------------------------*- C++ -*----------------------------------*\
  =========                 |
  \\      /  F ield         | OpenFOAM: The Open Source CFD Toolbox
   \\    /   O peration     | Website:  https://openfoam.org
    \\  /    A nd           | Version:  dev
     \\/     M anipulation  |
\*---------------------------------------------------------------------------*/
FoamFile
{
    version     2.0;
    format      ascii;
    class       dictionary;
    location    "system";
    object      fvSchemes;
}
// * * * * * * * * * * * * * * * * * * * * * * * * * * * * * * * * * * * * * //

ddtSchemes
{
    default     Euler;
}

gradSchemes
{
    default         cellLimited<cubic> 1.5 Gauss linear 1;              //Cubic gradient limiter
    
}

divSchemes
{
    default                         none;

    "div\(phi,alpha.*\)"            Gauss limitedLinear 1;;
    "div\(phir,alpha.*\)"           Gauss limitedLinear 1;;

    "div\(alphaRhoPhi.*,Yi\)"             Gauss limitedLinear 1;

    "div\(alphaRhoPhi.*,U.*\)"      Gauss linearUpwind default;
    "div\(phi.*,U.*\)"              Gauss linearUpwind default;

    "div\(alphaPhi.*,p\)"           Gauss linearUpwind default; 

    "div\(alphaRhoPhi.*,(h|e).*\)"  Gauss linearUpwind default;

    "div\(alphaRhoPhi.*,K.*\)"      Gauss linearUpwind default;

    div(alphaRhoPhi,(p|rho)) Gauss linearUpwind default;
    
    div(alphaRhoPhi.particles,Theta.particles) Gauss linearUpwind default;

    "div\(alphaRhoPhi.*,(k|epsilon).*\)"  Gauss linearUpwind default;

    div((((alpha.gas*thermo:rho.gas)*nuEff.gas)*dev2(T(grad(U.gas))))) Gauss linear 1;

    "div(phiUh,ph)"                 Gauss linearUpwind grad(rho);

    div(phiUh,Th)      Gauss upwind;
    
    "div\(\(\(\(alpha.*\*thermo:rho.*\)*nuEff.*\)\*dev2\(T\(grad\(U.*\)\)\)\)\)" Gauss linear 1;

    divDevTau(U.particles)          Gauss linear 1;

}

laplacianSchemes
{
    default Gauss linear limited corrected 0.33;
}

interpolationSchemes
{
    default    linear;
}

snGradSchemes
{
    default     limited 0.25;
}

// ************************************************************************* //
